Version 4
SHEET 1 3544 872
WIRE 2640 0 2592 0
WIRE 2816 0 2720 0
WIRE 2944 0 2880 0
WIRE -176 48 -432 48
WIRE 640 48 -176 48
WIRE 240 80 -240 80
WIRE -432 96 -432 48
WIRE -176 96 -176 48
WIRE 640 96 640 48
WIRE 2592 96 2592 0
WIRE 2592 96 2544 96
WIRE 2736 96 2592 96
WIRE 2944 96 2944 0
WIRE 2944 96 2816 96
WIRE 2976 96 2944 96
WIRE -240 112 -240 80
WIRE -208 112 -240 112
WIRE 608 112 528 112
WIRE 192 128 -144 128
WIRE 208 128 192 128
WIRE 800 128 672 128
WIRE -208 144 -288 144
WIRE 608 144 320 144
WIRE -176 224 -176 160
WIRE -176 224 -336 224
WIRE 640 224 640 160
WIRE 640 224 -176 224
WIRE 2544 224 2544 96
WIRE 2544 224 2208 224
WIRE 2656 224 2544 224
WIRE 2976 224 2976 96
WIRE 2976 224 2944 224
WIRE 800 304 800 128
WIRE 800 304 400 304
WIRE 3376 320 2944 320
WIRE 3488 320 3376 320
WIRE 400 336 400 304
WIRE 2208 352 2208 224
WIRE 2208 352 1552 352
WIRE -432 368 -432 176
WIRE 112 384 0 384
WIRE 240 384 240 80
WIRE 240 384 176 384
WIRE 288 384 240 384
WIRE 320 384 320 144
WIRE 320 384 288 384
WIRE 384 384 320 384
WIRE 528 384 528 112
WIRE 528 384 480 384
WIRE 544 384 528 384
WIRE 1552 384 1552 352
WIRE 1552 384 544 384
WIRE 3376 384 3376 320
WIRE 3488 384 3488 320
WIRE 2656 416 2432 416
WIRE 3328 416 2944 416
WIRE 288 432 288 384
WIRE -432 448 -432 432
WIRE 288 448 288 432
WIRE 544 448 544 384
WIRE -432 464 -432 448
WIRE -368 464 -432 464
WIRE -336 464 -336 224
WIRE -336 464 -368 464
WIRE 0 480 0 384
WIRE 3328 496 3328 416
WIRE 3376 496 3376 464
WIRE 3376 496 3328 496
WIRE -368 512 -368 464
WIRE 192 512 192 128
WIRE 240 512 192 512
WIRE 3216 512 2944 512
WIRE 288 528 288 512
WIRE 3376 528 3376 496
WIRE 2432 560 2432 416
WIRE -288 592 -288 144
WIRE 0 592 0 560
WIRE 0 592 -288 592
WIRE 288 592 288 528
WIRE 288 592 0 592
WIRE 368 592 288 592
WIRE 544 592 544 512
WIRE 544 592 368 592
WIRE 2656 608 2608 608
WIRE 2976 608 2944 608
WIRE 3216 608 3216 512
WIRE 368 624 368 592
WIRE 2192 624 1968 624
WIRE 2608 624 2608 608
WIRE 2608 640 2608 624
WIRE 1968 704 1968 624
WIRE 2192 736 2192 624
WIRE 2432 736 2432 640
WIRE 2432 736 2192 736
WIRE 2608 736 2608 688
WIRE 2608 736 2432 736
WIRE 2800 736 2800 656
WIRE 2800 736 2608 736
WIRE 2976 736 2976 608
WIRE 2976 736 2800 736
WIRE 3216 736 3216 672
WIRE 3216 736 2976 736
WIRE 3376 736 3376 608
WIRE 3376 736 3216 736
WIRE 3488 736 3488 448
WIRE 3488 736 3376 736
FLAG 1968 704 0
FLAG 368 624 0
FLAG -368 512 0
SYMBOL voltage -432 80 R0
WINDOW 123 0 0 Left 2
WINDOW 39 0 0 Left 2
SYMATTR InstName V1
SYMATTR Value 1.5
SYMBOL voltage -432 352 R0
WINDOW 123 0 0 Left 2
WINDOW 39 0 0 Left 2
SYMATTR InstName V3
SYMATTR Value 1.5
SYMBOL Comparators\\LT1017 -176 128 R0
SYMATTR InstName U1
SYMBOL Comparators\\LT1017 640 128 R0
SYMATTR InstName U2
SYMBOL PowerProducts\\LTC3105 2800 416 R0
SYMATTR InstName U3
SYMBOL ind 2720 112 R270
WINDOW 0 32 56 VTop 2
WINDOW 3 5 56 VBottom 2
SYMATTR InstName L1
SYMATTR Value 10µ
SYMBOL res 2416 544 R0
SYMATTR InstName R3
SYMATTR Value 20k
SYMBOL cap 2592 624 R0
SYMATTR InstName C6
SYMATTR Value 1µ
SYMBOL cap 3200 608 R0
SYMATTR InstName C7
SYMATTR Value 4.7µ
SYMBOL cap 3472 384 R0
SYMATTR InstName C8
SYMATTR Value 10µ
SYMBOL res 3360 368 R0
SYMATTR InstName R4
SYMATTR Value 1meg
SYMBOL res 3360 512 R0
SYMATTR InstName R5
SYMATTR Value 430k
SYMBOL res 2736 -16 R90
WINDOW 0 0 56 VBottom 2
WINDOW 3 32 56 VTop 2
SYMATTR InstName R6
SYMATTR Value 100
SYMBOL cap 2880 -16 R90
WINDOW 0 0 32 VBottom 2
WINDOW 3 32 32 VTop 2
SYMATTR InstName C5
SYMATTR Value 10n
SYMBOL voltage 0 464 R0
WINDOW 123 0 0 Left 2
WINDOW 39 24 124 Left 2
SYMATTR InstName V2
SYMATTR Value SINE(0 300m 60 0 0 0 10k)
SYMATTR SpiceLine Rser=42
SYMBOL cap 176 368 R90
WINDOW 0 0 32 VBottom 2
WINDOW 3 32 32 VTop 2
SYMATTR InstName C1
SYMATTR Value 1500µ
SYMBOL cap 528 448 R0
SYMATTR InstName C2
SYMATTR Value 1500µ
SYMBOL nmos 480 336 R90
SYMATTR InstName M1
SYMATTR Value IRLML6246
SYMBOL nmos 240 432 R0
SYMATTR InstName M2
SYMATTR Value IRLML6246
TEXT -522 584 Left 2 !.tran 0 1 0 startup
