Version 4
SHEET 1 2264 1060
WIRE 112 -400 -32 -400
WIRE 208 -400 112 -400
WIRE 304 -400 208 -400
WIRE 496 -400 304 -400
WIRE 592 -400 496 -400
WIRE -32 -368 -32 -400
WIRE -80 -224 -80 -272
WIRE 16 -224 16 -480
WIRE 112 -224 112 -400
WIRE 208 -224 208 -400
WIRE 304 -224 304 -400
WIRE 400 -224 400 -480
WIRE 496 -224 496 -400
WIRE 592 -224 592 -400
WIRE -400 -208 -496 -208
WIRE -272 -208 -400 -208
WIRE -496 -160 -496 -208
WIRE -400 -160 -400 -208
WIRE -272 -160 -272 -208
WIRE -144 -160 -272 -160
WIRE 704 -160 656 -160
WIRE 944 -160 784 -160
WIRE -496 -64 -496 -80
WIRE -400 -64 -400 -96
WIRE -400 -64 -496 -64
WIRE -144 -64 -400 -64
WIRE 704 -64 656 -64
WIRE -208 32 -384 32
WIRE -144 32 -208 32
WIRE 784 32 784 -64
WIRE 784 32 656 32
WIRE -208 48 -208 32
WIRE -384 128 -384 32
WIRE -208 128 -208 112
WIRE -144 128 -208 128
WIRE 880 128 656 128
WIRE 944 128 944 -160
WIRE 944 128 880 128
WIRE 1008 128 944 128
WIRE 1104 128 1008 128
WIRE 1008 176 1008 128
WIRE 1104 176 1104 128
WIRE -384 224 -384 192
WIRE -320 224 -384 224
WIRE -176 224 -256 224
WIRE -144 224 -176 224
WIRE 784 224 656 224
WIRE 880 224 880 128
WIRE -384 256 -384 224
WIRE -144 320 -352 320
WIRE 784 320 784 224
WIRE 784 320 656 320
WIRE 784 368 784 320
WIRE 880 368 880 288
WIRE 1008 368 1008 256
WIRE 1104 368 1104 256
WIRE -352 384 -352 320
WIRE -144 416 -208 416
WIRE 784 416 656 416
WIRE -352 512 -352 464
WIRE -208 512 -208 416
WIRE -208 512 -352 512
WIRE -144 512 -208 512
WIRE 784 512 656 512
WIRE 800 512 784 512
WIRE 800 528 800 512
WIRE -176 608 -176 224
WIRE 176 608 176 576
WIRE 176 608 -176 608
WIRE -352 624 -352 512
WIRE -352 624 -528 624
WIRE 336 624 336 576
WIRE 416 624 416 576
WIRE 416 624 336 624
WIRE 496 624 496 576
WIRE 496 624 416 624
WIRE 784 624 784 512
WIRE 784 624 496 624
WIRE 592 656 592 576
WIRE 720 656 592 656
WIRE -656 672 -752 672
WIRE -576 672 -656 672
WIRE -352 672 -352 624
WIRE 592 688 592 656
WIRE -528 704 -528 624
WIRE -576 720 -576 672
WIRE -752 784 -752 672
WIRE -656 800 -656 672
WIRE -64 800 -64 576
WIRE 16 800 16 576
WIRE 16 800 -64 800
WIRE 96 800 96 576
WIRE 96 800 16 800
WIRE 256 800 256 576
WIRE 256 800 96 800
WIRE 720 800 720 656
WIRE 720 800 528 800
WIRE -352 816 -352 672
WIRE 592 832 592 752
WIRE 720 832 720 800
WIRE 784 848 784 624
WIRE -752 880 -752 864
WIRE -576 880 -576 768
WIRE -576 880 -752 880
WIRE -528 912 -528 784
WIRE -528 912 -576 912
WIRE -352 960 -352 880
WIRE 592 992 592 912
WIRE 720 992 720 896
WIRE 720 992 592 992
WIRE 256 1008 256 800
WIRE 592 1008 592 992
WIRE 784 1008 784 912
FLAG -352 960 0
FLAG -384 256 0
FLAG -32 -368 0
FLAG -352 672 BB_IN
IOPIN -352 672 BiDir
FLAG 400 -480 BB_IN
IOPIN 400 -480 BiDir
FLAG 784 368 0
FLAG 784 1008 0
FLAG 880 368 0
FLAG 592 1008 0
FLAG 256 1008 0
FLAG 16 -480 VIN3
IOPIN 16 -480 In
FLAG 800 512 VIN3
IOPIN 800 512 Out
FLAG 528 800 BAT_IN
IOPIN 528 800 BiDir
FLAG -576 912 BAT_IN
IOPIN -576 912 In
FLAG -656 800 0
FLAG 1008 368 0
FLAG 1104 368 0
SYMBOL PowerProducts\\LTC3331 256 176 R0
SYMATTR InstName U1
SYMBOL cap -368 816 R0
SYMATTR InstName C1
SYMATTR Value 22µ
SYMBOL res -368 368 R0
SYMATTR InstName R1
SYMATTR Value 120k
SYMBOL cap -224 48 R0
SYMATTR InstName C2
SYMATTR Value 1µ
SYMBOL cap -400 128 R0
SYMATTR InstName C3
SYMATTR Value 22µ
SYMBOL cap -256 208 R90
WINDOW 0 0 32 VBottom 2
WINDOW 3 32 32 VTop 2
SYMATTR InstName C4
SYMATTR Value 4.7µ
SYMBOL ind 688 -48 R270
WINDOW 0 32 56 VTop 2
WINDOW 3 5 56 VBottom 2
SYMATTR InstName L1
SYMATTR Value 22µ
SYMATTR SpiceLine Rser=1
SYMBOL ind 688 -144 R270
WINDOW 0 32 56 VTop 2
WINDOW 3 5 56 VBottom 2
SYMATTR InstName L2
SYMATTR Value 22µ
SYMATTR SpiceLine Rser=1
SYMBOL cap 768 848 R0
SYMATTR InstName C5
SYMATTR Value 0µ1
SYMBOL cap 864 224 R0
SYMATTR InstName C6
SYMATTR Value 22µ
SYMBOL voltage 592 816 R0
WINDOW 123 0 0 Left 2
WINDOW 39 -104 111 Left 2
WINDOW 3 -98 73 Left 2
SYMATTR SpiceLine Rser=10
SYMATTR InstName V1
SYMATTR Value 3.8
SYMBOL cap 704 832 R0
SYMATTR InstName C7
SYMATTR Value 1µ
SYMBOL sw -528 688 R0
SYMATTR InstName S1
SYMATTR Value MYSW
SYMBOL voltage -752 880 R180
WINDOW 0 24 96 Left 2
WINDOW 3 24 16 Invisible 2
WINDOW 123 0 0 Left 2
WINDOW 39 0 0 Left 2
SYMATTR InstName V3
SYMATTR Value 0
SYMBOL cap 576 688 R0
SYMATTR InstName C8
SYMATTR Value 10
SYMBOL current -496 -80 R180
WINDOW 0 24 80 Left 2
WINDOW 3 -211 -44 Left 2
WINDOW 123 0 0 Left 2
WINDOW 39 0 0 Left 2
SYMATTR InstName I1
SYMATTR Value SINE(0 202u 11 0.2 0 0 1k)
SYMBOL cap -416 -160 R0
SYMATTR InstName C9
SYMATTR Value 39n
SYMBOL current 1008 176 R0
WINDOW 3 24 80 Invisible 2
WINDOW 123 0 0 Left 2
WINDOW 39 0 0 Left 2
SYMATTR InstName I2
SYMATTR Value PULSE(0 400u 4 10u 10u 100 101 10)
SYMBOL current 1104 176 R0
WINDOW 3 24 80 Invisible 2
WINDOW 123 0 0 Left 2
WINDOW 39 0 0 Left 2
SYMATTR InstName I3
SYMATTR Value PULSE(0 26m 5 10n 10n 10m 10 1)
TEXT -400 -520 Left 2 !.tran 0 10 1 startup
TEXT -848 1008 Left 2 !.model MYSW SW(Ron=1 Roff=100Meg Vt=.5 Vh=-.4)
TEXT -504 -248 Left 2 ;Energy harvesting source
TEXT -784 608 Left 2 ;Simulate battery \nconnecting to circuit
TEXT 1008 24 Left 2 ;Simulated \nload
TEXT 440 712 Left 2 ;Energy \nstorage
LINE Normal -176 -288 -576 -288 2
LINE Normal -176 -16 -176 -288 2
LINE Normal -592 -16 -176 -16 2
LINE Normal -592 -288 -592 -16 2
LINE Normal -576 -288 -592 -288 2
LINE Normal -576 -288 -576 -288 2
LINE Normal -224 1040 -224 560 2
LINE Normal -976 560 -976 560 2
LINE Normal 976 80 976 432 2
LINE Normal 1120 80 976 80 2
LINE Normal 976 432 1120 432 2
LINE Normal 976 432 976 432 2
LINE Normal 976 432 976 432 2
LINE Normal 976 432 976 432 2
LINE Normal 1152 80 1120 80 2
LINE Normal 1152 432 1152 80 2
LINE Normal 1120 432 1152 432 2
LINE Normal 1120 432 1120 432 2
LINE Normal 704 1056 704 672 2
LINE Normal 368 1056 704 1056 2
LINE Normal 368 672 368 1056 2
LINE Normal 704 672 368 672 2
LINE Normal 704 672 704 672 2
LINE Normal -864 560 -224 560 2
LINE Normal -864 1040 -864 560 2
LINE Normal -224 1040 -864 1040 2
LINE Normal -224 1040 -224 1040 2
