Version 4
SHEET 1 956 680
WIRE 208 0 -240 0
WIRE 400 0 272 0
WIRE 624 32 480 32
WIRE 624 48 624 32
WIRE 208 80 -32 80
WIRE 400 80 400 0
WIRE 400 80 272 80
WIRE 208 160 144 160
WIRE 400 160 400 80
WIRE 400 160 272 160
WIRE 480 160 480 32
WIRE 400 176 400 160
WIRE 448 176 400 176
WIRE 560 192 512 192
WIRE 688 192 640 192
WIRE 448 208 400 208
WIRE 688 256 688 192
WIRE -240 272 -240 0
WIRE -32 272 -32 80
WIRE 144 272 144 160
WIRE 400 352 400 208
WIRE 544 352 400 352
WIRE 688 352 688 320
WIRE 688 352 624 352
WIRE 768 352 688 352
WIRE 400 416 400 352
WIRE 480 416 480 224
WIRE 768 416 768 352
WIRE -240 448 -240 352
WIRE -32 448 -32 352
WIRE 144 448 144 352
WIRE 400 544 400 496
WIRE 480 544 480 496
WIRE 480 544 400 544
WIRE 768 544 768 480
WIRE 480 560 480 544
FLAG -240 448 0
FLAG -32 448 0
FLAG 144 448 0
FLAG 768 544 0
FLAG 480 560 0
FLAG 624 48 0
SYMBOL eagle\\rcl\\R 240 0 R0
SYMATTR InstName R1
SYMATTR Value 100k
SYMBOL eagle\\rcl\\R 240 80 R0
SYMATTR InstName R2
SYMATTR Value 100k
SYMBOL eagle\\rcl\\R 240 160 R0
SYMATTR InstName R3
SYMATTR Value 100k
SYMBOL diode 672 256 R0
SYMATTR InstName D1
SYMATTR Value 1N914
SYMBOL voltage 144 256 R0
WINDOW 3 24 152 Left 2
WINDOW 123 0 0 Left 2
WINDOW 39 24 180 Left 2
SYMATTR InstName V1
SYMATTR Value 0
SYMATTR SpiceLine Rser=1k
SYMBOL voltage -32 256 R0
WINDOW 123 0 0 Left 2
WINDOW 39 24 124 Left 2
SYMATTR InstName V2
SYMATTR Value 0
SYMATTR SpiceLine Rser=1k
SYMBOL voltage -240 256 R0
WINDOW 3 24 96 Invisible 2
WINDOW 123 0 0 Left 2
WINDOW 39 24 44 Left 2
SYMATTR InstName V3
SYMATTR Value PULSE(0 1 0.1 0.10u 1m 1m 0.1 10)
SYMATTR SpiceLine Rser=1k
SYMBOL cap 752 416 R0
SYMATTR InstName C1
SYMATTR Value 1µ
SYMBOL voltage 480 400 R0
WINDOW 123 0 0 Left 2
WINDOW 39 0 0 Left 2
SYMATTR InstName V4
SYMATTR Value 3.3
SYMBOL Opamps\\LTC2055 480 192 M180
SYMATTR InstName U1
SYMBOL res 656 176 R90
WINDOW 0 0 56 VBottom 2
WINDOW 3 32 56 VTop 2
SYMATTR InstName R5
SYMATTR Value 1k
SYMBOL res 640 336 R90
WINDOW 0 0 56 VBottom 2
WINDOW 3 32 56 VTop 2
SYMATTR InstName R6
SYMATTR Value 200k
SYMBOL res 384 400 R0
SYMATTR InstName R7
SYMATTR Value 100k
TEXT -274 584 Left 2 !.tran 1
