Version 4
SHEET 1 2684 884
WIRE 208 -176 32 -176
WIRE 592 -176 288 -176
WIRE 640 -176 592 -176
WIRE 944 -176 640 -176
WIRE 1472 -176 944 -176
WIRE 2000 -176 1472 -176
WIRE 2432 -176 2000 -176
WIRE 640 -128 640 -176
WIRE 368 -80 208 -80
WIRE 432 -80 368 -80
WIRE 944 -80 944 -176
WIRE 1472 -80 1472 -176
WIRE 2000 -80 2000 -176
WIRE 2432 -80 2432 -176
WIRE 368 -32 368 -80
WIRE 640 -16 640 -64
WIRE 1360 0 1248 0
WIRE 1888 0 1808 0
WIRE 2320 0 2256 0
WIRE 832 16 768 16
WIRE 592 64 592 -176
WIRE 2320 96 2320 80
WIRE 368 112 368 48
WIRE 528 112 368 112
WIRE 1360 112 1360 80
WIRE 1472 112 1472 -16
WIRE 1632 112 1472 112
WIRE 1888 112 1888 80
WIRE 832 128 832 96
WIRE 32 144 32 -176
WIRE 208 144 208 -80
WIRE 2432 144 2432 -16
WIRE 2592 144 2432 144
WIRE 2432 176 2432 144
WIRE 2432 176 2368 176
WIRE 1472 192 1472 112
WIRE 1472 192 1408 192
WIRE 2000 192 2000 -16
WIRE 2000 192 1936 192
WIRE 944 208 944 -16
WIRE 944 208 880 208
WIRE 2000 224 2000 192
WIRE 2000 224 1984 224
WIRE 2176 224 2000 224
WIRE 944 240 944 208
WIRE 1120 240 944 240
WIRE 2432 240 2432 176
WIRE 368 256 368 112
WIRE 1472 256 1472 192
WIRE 2000 256 2000 224
WIRE 2592 256 2592 144
WIRE 944 272 944 240
WIRE 2176 288 2176 224
WIRE 592 304 592 160
WIRE 592 304 432 304
WIRE 1120 304 1120 240
WIRE 2368 320 2352 320
WIRE 2384 320 2368 320
WIRE 1424 336 1392 336
WIRE 1920 336 1872 336
WIRE 1952 336 1920 336
WIRE 896 352 864 352
WIRE 1632 384 1632 112
WIRE 592 400 592 304
WIRE 2592 416 2592 336
WIRE 2176 432 2176 368
WIRE 2320 448 2320 192
WIRE 2368 448 2368 320
WIRE 2368 448 2320 448
WIRE 2432 448 2432 336
WIRE 2432 448 2368 448
WIRE 1360 464 1360 208
WIRE 1392 464 1392 336
WIRE 1392 464 1360 464
WIRE 1472 464 1472 352
WIRE 1472 464 1392 464
WIRE 1888 464 1888 208
WIRE 1920 464 1920 336
WIRE 1920 464 1888 464
WIRE 2000 464 2000 352
WIRE 2000 464 1920 464
WIRE 832 480 832 224
WIRE 864 480 864 352
WIRE 864 480 832 480
WIRE 944 480 944 368
WIRE 944 480 864 480
WIRE 1632 480 1632 464
WIRE 2432 480 2432 448
WIRE 1472 496 1472 464
WIRE 2000 496 2000 464
WIRE 32 512 32 224
WIRE 208 512 208 224
WIRE 368 512 368 352
WIRE 592 512 592 480
WIRE 944 512 944 480
WIRE 1120 576 1120 384
WIRE 1152 576 1120 576
WIRE 1632 576 1632 544
WIRE 1632 576 1216 576
WIRE 1760 576 1632 576
WIRE 2176 576 2176 496
WIRE 2176 576 1760 576
WIRE 2592 576 2592 480
WIRE 2592 576 2176 576
WIRE 1760 640 1760 576
WIRE 1664 720 1552 720
WIRE 1712 720 1664 720
WIRE 1552 752 1552 720
WIRE 1664 768 1664 720
WIRE 1552 864 1552 832
WIRE 1664 864 1664 848
WIRE 1760 864 1760 736
FLAG 592 512 0
FLAG 368 512 0
FLAG 32 512 0
FLAG 208 512 0
FLAG 944 512 0
FLAG 1472 496 0
FLAG 2000 496 0
FLAG 2432 480 0
FLAG 768 16 5v
IOPIN 768 16 In
FLAG 1248 0 5v
IOPIN 1248 0 In
FLAG 1808 0 5v
IOPIN 1808 0 In
FLAG 2256 0 5v
IOPIN 2256 0 In
FLAG 432 -80 5v
IOPIN 432 -80 Out
FLAG 1760 864 0
FLAG 1664 864 0
FLAG 1552 864 0
FLAG 640 -16 0
SYMBOL voltage 32 128 R0
WINDOW 123 0 0 Left 2
WINDOW 39 0 0 Left 2
SYMATTR InstName V1
SYMATTR Value 20
SYMBOL npn 528 64 R0
SYMATTR InstName Q1
SYMATTR Value 2N3904
SYMBOL npn 432 256 M0
SYMATTR InstName Q2
SYMATTR Value 2N3904
SYMBOL res 352 -48 R0
SYMATTR InstName R1
SYMATTR Value 100k
SYMBOL res 576 384 R0
SYMATTR InstName R3
SYMATTR Value 100k
SYMBOL voltage 208 128 R0
WINDOW 123 0 0 Left 2
WINDOW 39 0 0 Left 2
SYMATTR InstName V2
SYMATTR Value 3
SYMBOL zener 960 -16 R180
WINDOW 0 24 64 Left 2
WINDOW 3 24 0 Left 2
SYMATTR InstName D1
SYMATTR Value UMZ7_5K
SYMATTR Description Diode
SYMATTR Type diode
SYMBOL zener 1488 -16 R180
WINDOW 0 24 64 Left 2
WINDOW 3 24 0 Left 2
SYMATTR InstName D2
SYMATTR Value UMZ9_1K
SYMATTR Description Diode
SYMATTR Type diode
SYMBOL zener 2016 -16 R180
WINDOW 0 24 64 Left 2
WINDOW 3 24 0 Left 2
SYMATTR InstName D3
SYMATTR Value UMZ12K
SYMATTR Description Diode
SYMATTR Type diode
SYMBOL zener 2448 -16 R180
WINDOW 0 24 64 Left 2
WINDOW 3 24 0 Left 2
SYMATTR InstName D4
SYMATTR Value UMZ15K
SYMATTR Description Diode
SYMATTR Type diode
SYMBOL nmos 880 128 M0
SYMATTR InstName M1
SYMATTR Value IRLML6346
SYMBOL nmos 896 272 R0
SYMATTR InstName M2
SYMATTR Value IRLML6346
SYMBOL nmos 1408 112 M0
SYMATTR InstName M3
SYMATTR Value IRLML6346
SYMBOL nmos 1424 256 R0
SYMATTR InstName M4
SYMATTR Value IRLML6346
SYMBOL nmos 1936 112 M0
SYMATTR InstName M5
SYMATTR Value IRLML6346
SYMBOL nmos 1952 256 R0
SYMATTR InstName M6
SYMATTR Value IRLML6346
SYMBOL nmos 2368 96 M0
SYMATTR InstName M7
SYMATTR Value IRLML6346
SYMBOL nmos 2384 240 R0
SYMATTR InstName M8
SYMATTR Value IRLML6346
SYMBOL res 192 -160 R270
WINDOW 0 32 56 VTop 2
WINDOW 3 0 56 VBottom 2
SYMATTR InstName R2
SYMATTR Value 220k
SYMBOL res 816 0 R0
SYMATTR InstName R4
SYMATTR Value 10k
SYMBOL res 1344 -16 R0
SYMATTR InstName R5
SYMATTR Value 10k
SYMBOL res 1872 -16 R0
SYMATTR InstName R6
SYMATTR Value 10k
SYMBOL res 2304 -16 R0
SYMATTR InstName R7
SYMATTR Value 10k
SYMBOL res 2576 240 R0
SYMATTR InstName R8
SYMATTR Value 1meg
SYMBOL res 2160 272 R0
SYMATTR InstName R9
SYMATTR Value 1meg
SYMBOL res 1616 368 R0
SYMATTR InstName R10
SYMATTR Value 1meg
SYMBOL res 1104 288 R0
SYMATTR InstName R11
SYMATTR Value 1meg
SYMBOL nmos 1712 640 R0
SYMATTR InstName M9
SYMATTR Value IRLML6346
SYMBOL res 1648 752 R0
SYMATTR InstName R12
SYMATTR Value 10k
SYMBOL voltage 1552 736 R0
WINDOW 3 24 96 Invisible 2
WINDOW 123 0 0 Left 2
WINDOW 39 0 0 Left 2
SYMATTR Value PULSE(0 3 0.01 10n 10n 900m 1 10)
SYMATTR InstName V3
SYMBOL diode 1152 592 R270
WINDOW 0 32 32 VTop 2
WINDOW 3 0 32 VBottom 2
SYMATTR InstName D5
SYMATTR Value 1N914
SYMBOL diode 1616 480 R0
SYMATTR InstName D6
SYMATTR Value 1N914
SYMBOL diode 2160 432 R0
SYMATTR InstName D7
SYMATTR Value 1N914
SYMBOL diode 2576 416 R0
SYMATTR InstName D8
SYMATTR Value 1N914
SYMBOL cap 624 -128 R0
SYMATTR InstName C1
SYMATTR Value 39µ
TEXT 0 536 Left 2 !.tran 10 startup
