Version 4
SHEET 1 880 680
WIRE 288 48 176 48
WIRE 400 48 288 48
WIRE 592 48 400 48
WIRE 176 112 176 48
WIRE 288 112 288 48
WIRE 400 112 400 48
WIRE 592 112 592 48
WIRE 176 272 176 192
WIRE 288 272 288 192
WIRE 288 272 176 272
WIRE 400 272 400 176
WIRE 400 272 288 272
WIRE 592 272 592 192
WIRE 592 272 400 272
SYMBOL current 176 192 R180
WINDOW 0 24 80 Left 2
WINDOW 3 24 0 Left 2
SYMATTR InstName I1
SYMBOL current 288 112 R0
SYMATTR InstName I2
SYMBOL cap 384 112 R0
SYMATTR InstName C1
SYMBOL res 576 96 R0
SYMATTR InstName R1
